  15
  -451.52376609549498     
 N     0.16001650    -1.65290839     0.00000021
 C     1.34677381    -0.97344133    -0.00000266
 N     1.19465720     0.38823779     0.00000001
 C     0.00954344     1.10818741     0.00000199
 C    -1.21316478     0.28982683    -0.00000051
 C    -1.06953588    -1.03210140     0.00000007
 O     2.41083448    -1.51670136     0.00000062
 O     0.02621457     2.30324465    -0.00000033
 H     0.23310151    -2.64386040     0.00000033
 H     2.03850100     0.91952659     0.00000030
 C    -2.53573289     1.00209932    -0.00000017
 H    -1.91048089    -1.69971376     0.00000072
 H    -3.35562208     0.29279706    -0.00000027
 H    -2.62967001     1.63861747     0.87260658
 H    -2.62966998     1.63861753    -0.87260687
