  15
  -452.85549049834736     
 N     0.15489884    -1.66403412    -0.00000022
 C     1.36235212    -0.98523591    -0.00005225
 N     1.18984894     0.39015445    -0.00000809
 C    -0.00607324     1.12235704     0.00006873
 C    -1.21542044     0.29971028     0.00001275
 C    -1.07935618    -1.04739599     0.00002316
 O     2.45257851    -1.54243143     0.00000840
 O     0.00872572     2.35203486    -0.00000801
 H     0.23282647    -2.66872437    -0.00002944
 H     2.04368298     0.93332116     0.00000365
 C    -2.53425272     1.00495094    -0.00000106
 H    -1.92954177    -1.71621331     0.00002971
 H    -3.35728416     0.29227382    -0.00000813
 H    -2.62362385     1.64585116     0.87610188
 H    -2.62359523     1.64580942    -0.87614104
